!=======================================================================        
!      
!     This is the 66-steps Skeletal mechanism in CHEMKIN. 
! 
!     A. Millan-Merino, E. Fernandez-Tarrazo, M. Sanchez-Sanz, 
!     F. A. Williams, A Multiporpuse Reduced Mechanism for 
!     Ethanol Combustion.
!=======================================================================        
!                                                                               
!     ============================================================              
!     !                                                          !                          
!     !                                                          !              
!     !                    Skeletal_66 mechanism                 ! 
!     !                                                          ! 
!     !                          based on                        !
!     !          San Diego mechanism, version 2016-12-20         !
!     !                                                          !              
!     !             Universidad Carlos III de Madrid             !              
!     !                 Fluid Mechanics Research                 !              
!     !                  http://fluidosuc3m.es                   !              
!     !                                                          ! 
!     !     date:       18-12-2017                               ! 
!     !     Author:     A. Millan-Merino,      UC3M              !     
!     !                 E. Fernandez-Tarrazo,  UC3M              !              
!     !                 M. Sanchez-Sanz,       UC3M              !              
!     !                 F. A. Williams,        UCSD              !              
!     !                                                          !              
!     ============================================================                  
!                                                                               
!                                                                               
!======================================================================= 

ELEMENTS
N AR HE H O C 
END

SPECIES
N2 AR HE H O2 OH O H2
H2O HO2 CO CO2 HCO CH3 CH4 CH2O
T-CH2 S-CH2 C2H4 CH3O C2H5 C2H6 H2O2 C2H2
C2H3 CH2CHO CH2CO CH2OH CH3CHO CH3CO 
C2H5OH CH2CH2OH CH3CHOH CH3CH2O
END

REACTIONS CAL/MOLE
H+O2 = OH+O 3.520000E+16 -7.000000E-01 1.706979E+04
H2+O = OH+H 5.060000E+04 2.670000E+00 6.290630E+03
H2+OH = H2O+H 1.170000E+09 1.300000E+00 3.635280E+03
H2O+O = 2OH 7.000000E+05 2.330000E+00 1.454828E+04
2H+M = H2+M 1.300000E+18 -1.000000E+00 0.000000E+00
     AR /5.000000E-01/  HE /5.000000E-01/  H2 /2.500000E+00/  H2O /1.200000E+01/  CO /1.900000E+00/  CO2 /3.800000E+00/
H+OH+M = H2O+M 4.000000E+22 -2.000000E+00 0.000000E+00
     AR /3.800000E-01/  HE /3.800000E-01/  H2 /2.500000E+00/  H2O /1.200000E+01/  CO /1.900000E+00/  CO2 /3.800000E+00/
H+O+M = OH+M 4.710000E+18 -1.000000E+00 0.000000E+00
     AR /7.500000E-01/  HE /7.500000E-01/  H2 /2.500000E+00/  H2O /1.200000E+01/  CO /1.900000E+00/  CO2 /3.800000E+00/
H+O2(+M) = HO2(+M) 4.650000E+12 4.400000E-01 0.000000E+00
     AR /7.000000E-01/  HE /7.000000E-01/  H2 /2.500000E+00/  H2O /1.600000E+01/  CO /1.200000E+00/  CO2 /2.400000E+00/  C2H6 /1.500000E+00/
  LOW /5.750000E+19 -1.400000E+00 0.000000E+00/
  TROE /5.000000E-01 1.000000E-30 1.000000E+30/
HO2+H = 2OH 7.080000E+13 0.000000E+00 2.949300E+02
HO2+H => H2+O2 1.660000E+13 0.000000E+00 8.229000E+02
HO2+H = H2O+O 3.100000E+13 0.000000E+00 1.720840E+03
HO2+O => OH+O2 2.000000E+13 0.000000E+00 0.000000E+00
HO2+OH = H2O+O2 7.000000E+12 0.000000E+00 -1.094650E+03
     DUPLICATE
HO2+OH = H2O+O2 4.500000E+14 0.000000E+00 1.092973E+04
     DUPLICATE
2OH(+M) = H2O2(+M) 9.550000E+13 -2.700000E-01 0.000000E+00
     AR /7.000000E-01/  HE /4.000000E-01/  H2 /2.500000E+00/  H2O /6.000000E+00/  H2O2 /6.000000E+00/  CO /1.500000E+00/  CO2 /2.000000E+00/
  LOW /2.760000E+25 -3.200000E+00 0.000000E+00/
  TROE /5.700000E-01 1.000000E+30 1.000000E-30/
2HO2 => H2O2+O2 1.030000E+14 0.000000E+00 1.104207E+04
     DUPLICATE
2HO2 => H2O2+O2 1.940000E+11 0.000000E+00 -1.408940E+03
     DUPLICATE
H2O2+OH => H2O+HO2 1.740000E+12 0.000000E+00 1.434030E+03
     DUPLICATE
H2O2+OH => H2O+HO2 7.590000E+13 0.000000E+00 7.272940E+03
     DUPLICATE
CO+OH = CO2+H 4.400000E+06 1.500000E+00 -7.409200E+02
HCO+M => CO+H+M 1.860000E+17 -1.000000E+00 1.700048E+04
     H2 /1.900000E+00/  H2O /1.200000E+01/  CO /2.500000E+00/  CO2 /2.500000E+00/
HCO+H => CO+H2 5.000000E+13 0.000000E+00 0.000000E+00
HCO+OH => CO+H2O 3.000000E+13 0.000000E+00 0.000000E+00
HCO+O2 => CO+HO2 7.580000E+12 0.000000E+00 4.098900E+02
HCO+CH3 => CO+CH4 5.000000E+13 0.000000E+00 0.000000E+00
CH2O+H => HCO+H2 5.740000E+07 1.900000E+00 2.748570E+03
CH2O+O => HCO+OH 3.500000E+13 0.000000E+00 3.513380E+03
CH2O+OH => HCO+H2O 3.900000E+10 8.900000E-01 4.063100E+02
CH4+H => H2+CH3 1.300000E+04 3.000000E+00 8.037760E+03
CH4+OH => H2O+CH3 1.600000E+07 1.830000E+00 2.782030E+03 
CH3+OH = S-CH2+H2O 4.000000E+13 0.000000E+00 2.502390E+03 
CH3+O => CH2O+H 8.430000E+13 0.000000E+00 0.000000E+00
CH3+HO2 => CH3O+OH 5.000000E+12 0.000000E+00 0.000000E+00
CH3+O2 => CH2O+OH 3.300000E+11 0.000000E+00 8.941200E+03
2CH3 = C2H5+H 3.160000E+13 0.000000E+00 1.469885E+04
H+CH3(+M) => CH4(+M) 1.270000E+16 -6.300000E-01 3.828900E+02
     AR /7.000000E-01/  H2 /2.000000E+00/  H2O /1.600000E+01/  CO /1.500000E+00/  CO2 /2.000000E+00/  CH4 /2.000000E+00/
  LOW /2.470000E+33 -4.760000E+00 2.440010E+03/
  TROE /7.830000E-01 7.400000E+01 2.941000E+03 6.964000E+03/
2CH3(+M) => C2H6(+M) 1.810000E+13 0.000000E+00 0.000000E+00
     AR /7.000000E-01/  H2 /2.000000E+00/  H2O /6.000000E+00/  CO /1.500000E+00/  CO2 /2.000000E+00/  CH4 /2.000000E+00/  C2H6 /3.000000E+00/
  LOW /1.270000E+41 -7.000000E+00 2.762910E+03/
  TROE /6.200000E-01 7.300000E+01 1.200000E+03/
S-CH2+O2 => CO+OH+H 3.130000E+13 0.000000E+00 0.000000E+00
T-CH2+O2 => CO2+H2 2.630000E+12 0.000000E+00 1.491400E+03
T-CH2+O2 => CO+OH+H 6.580000E+12 0.000000E+00 1.491400E+03
CH3O+M => CH2O+H+M 7.780000E+13 0.000000E+00 1.351338E+04
     AR /7.000000E-01/  H2 /2.000000E+00/  H2O /6.000000E+00/  CO /1.500000E+00/  CO2 /2.000000E+00/  CH4 /2.000000E+00/
C2H6+OH = C2H5+H2O 2.200000E+07 1.900000E+00 1.123330E+03
C2H5(+M) = C2H4+H(+M) 1.110000E+10 1.037000E+00 3.676864E+04
     AR /7.000000E-01/  H2 /2.000000E+00/  H2O /6.000000E+00/  CO /1.500000E+00/  CO2 /2.000000E+00/  CH4 /2.000000E+00/
  LOW /3.990000E+33 -4.990000E+00 4.000000E+04/
  TROE /1.680000E-01 1.200000E+03 1.000000E-30/
C2H4+OH = C2H3+H2O 5.530000E+05 2.310000E+00 2.963670E+03
C2H3+H => C2H2+H2 4.000000E+13 0.000000E+00 0.000000E+00
C2H3+O2 => CH2O+HCO 1.700000E+29 -5.312000E+00 6.503110E+03
C2H3+O2 => CH2CHO+O 7.000000E+14 -6.110000E-01 5.262430E+03
C2H2+O = T-CH2+CO 1.600000E+14 0.000000E+00 9.894840E+03
CH2CO+H => CH3+CO 1.500000E+09 1.430000E+00 2.688810E+03
CH2OH+O2 => CH2O+HO2 5.000000E+12 0.000000E+00 0.000000E+00
CH2CO+OH => CH2OH+CO 1.020000E+13 0.000000E+00 0.000000E+00
CH2CHO => CH2CO+H 1.047000E+37 -7.189000E+00 4.434034E+04
CH3CHO = CH3+HCO 7.000000E+15 0.000000E+00 8.170005E+04
CH3CO(+M) => CH3+CO(+M) 3.000000E+12 0.000000E+00 1.670005E+04
     AR /7.000000E-01/  H2 /2.000000E+00/  H2O /6.000000E+00/  CO /1.500000E+00/  CO2 /2.000000E+00/  CH4 /2.000000E+00/
  LOW /1.200000E+15 0.000000E+00 1.250000E+04/
  TROE /1.000000E+00 1.000000E+00 1.000000E+07 1.000000E+07/
CH3CHO+OH => CH3CO+H2O 3.370000E+12 0.000000E+00 -6.199800E+02
CH3CHO+H => CH3CO+H2 4.660000E+13 -3.000000E-01 2.989960E+03
CH3CHO+H => CH2CHO+H2 1.850000E+12 4.000000E-01 5.359940E+03
C2H5OH(+M) => CH3+CH2OH(+M) 5.000000E+15 0.000000E+00 8.200000E+04
     AR /7.000000E-01/  H2 /2.000000E+00/  H2O /6.000000E+00/  CO /1.500000E+00/  CO2 /2.000000E+00/  CH4 /2.000000E+00/
  LOW /3.000000E+16 0.000000E+00 5.800000E+04/
  TROE /5.000000E-01 1.000000E-30 1.000000E+30/
C2H5OH(+M) = C2H4+H2O(+M) 8.000000E+13 0.000000E+00 6.500000E+04
     AR /7.000000E-01/  H2 /2.000000E+00/  H2O /6.000000E+00/  CO /1.500000E+00/  CO2 /2.000000E+00/  CH4 /2.000000E+00/
  LOW /1.000000E+17 0.000000E+00 5.400000E+04/
  TROE /5.000000E-01 1.000000E-30 1.000000E+30/
C2H5OH+OH => CH2CH2OH+H2O 1.810000E+11 4.000000E-01 7.170200E+02
C2H5OH+OH => CH3CHOH+H2O 3.090000E+10 5.000000E-01 -3.800200E+02
C2H5OH+OH => CH3CH2O+H2O 1.050000E+10 8.000000E-01 7.170200E+02
C2H5OH+H => CH3CHOH+H2 2.580000E+07 1.600000E+00 2.830070E+03
C2H5OH+O => CH3CH2O+OH 1.580000E+07 2.000000E+00 4.450050E+03
C2H5OH+HO2 => CH3CHOH+H2O2 8.200000E+03 2.500000E+00 1.079995E+04
C2H4+OH = CH2CH2OH 2.410000E+11 0.000000E+00 -2.380020E+03
CH3CH2O+M => CH3CHO+H+M 5.600000E+34 -5.900000E+00 2.529995E+04
     AR /7.000000E-01/  H2 /2.000000E+00/  H2O /6.000000E+00/  CO /1.500000E+00/  CO2 /2.000000E+00/  CH4 /2.000000E+00/
CH3CH2O+M => CH3+CH2O+M 5.350000E+37 -7.000000E+00 2.379995E+04
     AR /7.000000E-01/  H2 /2.000000E+00/  H2O /6.000000E+00/  CO /1.500000E+00/  CO2 /2.000000E+00/  CH4 /2.000000E+00/
CH3CHOH+O2 => CH3CHO+HO2 4.820000E+13 0.000000E+00 5.020080E+03
END
